  
       XFOIL         Version 6.99
  
 Calculated polar for: NACA 4412                                       
  
 1 1 Reynolds number fixed          Mach number fixed         
  
 xtrf =   1.000 (top)        1.000 (bottom)  
 Mach =   0.000     Re =     9.000 e 6     Ncrit =   9.000
  
   alpha    CL        CD       CDp       CM     Top_Xtr  Bot_Xtr
  ------ -------- --------- --------- -------- -------- --------
   0.000   0.4839   0.00537   0.00077  -0.1054   0.4408   0.1561
   1.000   0.5994   0.00533   0.00083  -0.1061   0.4203   0.2230
   2.000   0.7140   0.00536   0.00096  -0.1067   0.3931   0.3126
   3.000   0.8259   0.00538   0.00121  -0.1070   0.3473   0.5123
   4.000   0.9343   0.00563   0.00164  -0.1068   0.2802   0.7357
   5.000   1.0370   0.00608   0.00226  -0.1053   0.1980   1.0000
   6.000   1.1395   0.00719   0.00298  -0.1039   0.1196   1.0000
   7.000   1.2407   0.00831   0.00378  -0.1024   0.0646   1.0000
   8.000   1.3414   0.00932   0.00460  -0.1008   0.0385   1.0000
   9.000   1.4399   0.01033   0.00549  -0.0990   0.0252   1.0000
  10.000   1.5356   0.01134   0.00643  -0.0968   0.0188   1.0000
  11.000   1.6250   0.01252   0.00756  -0.0936   0.0141   1.0000
  12.000   1.7016   0.01380   0.00883  -0.0880   0.0115   1.0000
  13.000   1.7688   0.01538   0.01043  -0.0814   0.0099   1.0000
  14.000   1.8297   0.01747   0.01256  -0.0747   0.0085   1.0000
  15.000   1.8820   0.02029   0.01544  -0.0679   0.0075   1.0000
  16.000   1.9264   0.02401   0.01925  -0.0615   0.0066   1.0000
  17.000   1.9616   0.02891   0.02426  -0.0558   0.0061   1.0000
  18.000   1.9814   0.03582   0.03130  -0.0509   0.0054   1.0000
  19.000   1.9920   0.04453   0.04019  -0.0476   0.0050   1.0000
  20.000   1.9925   0.05517   0.05102  -0.0460   0.0049   1.0000
  21.000   1.9765   0.06838   0.06446  -0.0460   0.0047   1.0000
  22.000   1.9436   0.08432   0.08064  -0.0478   0.0045   1.0000
  23.000   1.8951   0.10297   0.09955  -0.0519   0.0041   1.0000
  24.000   1.8461   0.12233   0.11917  -0.0581   0.0038   1.0000
  25.000   1.7974   0.14244   0.13956  -0.0671   0.0036   1.0000
